Version 4
SHEET 1 880 680
SYMBOL npn 224 -320 R90
SYMATTR InstName Q1
SYMBOL res 160 -416 R0
SYMATTR InstName R1
SYMBOL res 144 -272 R90
WINDOW 0 0 56 VBottom 2
WINDOW 3 32 56 VTop 2
SYMATTR InstName R2
SYMBOL res 320 -272 R90
WINDOW 0 0 56 VBottom 2
WINDOW 3 32 56 VTop 2
SYMATTR InstName R3
