Version 4
SHEET 1 880 680
SYMBOL res -64 80 R0
SYMATTR InstName R1
SYMBOL res 80 64 R90
WINDOW 0 0 56 VBottom 2
WINDOW 3 32 56 VTop 2
SYMATTR InstName R2
SYMBOL res 64 80 R0
SYMATTR InstName R3
SYMBOL res 80 176 R90
WINDOW 0 0 56 VBottom 2
WINDOW 3 32 56 VTop 2
SYMATTR InstName R4
