Version 4
SHEET 1 880 680
SYMBOL npn 128 96 R0
SYMATTR InstName Q1
SYMBOL res 176 0 R0
SYMATTR InstName R1
SYMBOL res 144 128 R90
WINDOW 0 0 56 VBottom 2
WINDOW 3 32 56 VTop 2
SYMATTR InstName R2
SYMBOL res 208 288 R180
WINDOW 0 36 76 Left 2
WINDOW 3 36 40 Left 2
SYMATTR InstName R3
