Version 4
SHEET 1 880 680
SYMBOL npn 240 80 R0
SYMATTR InstName Q1
SYMBOL npn 288 128 R90
SYMATTR InstName Q2
SYMBOL npn 240 176 R180
SYMATTR InstName Q3
SYMBOL npn 192 128 R270
SYMATTR InstName Q4
