Version 4
SHEET 1 880 680
WIRE 64 0 -48 0
WIRE -48 112 -48 0
WIRE 64 112 64 80
WIRE 128 112 64 112
WIRE 128 128 128 112
WIRE 128 208 128 192
WIRE 64 224 64 192
WIRE -48 288 -48 192
WIRE 64 288 -48 288
WIRE 128 288 64 288
SYMBOL voltage -48 96 R0
SYMATTR InstName V1
SYMBOL res 48 96 R0
SYMATTR InstName R1
SYMBOL ind 48 -16 R0
SYMATTR InstName L1
SYMBOL cap 48 224 R0
SYMATTR InstName C1
SYMBOL cap 112 128 R0
SYMATTR InstName C2
SYMBOL ind 112 192 R0
SYMATTR InstName L2
